Simulation_setting/case_study_files/scigrid_scenario_LLNP.m
function mpc = case_scigrid;
% Converted from scigrid based on snapshot 2011-01-01 05:00:00, storages are omitted 
%% MATPOWER Case Format : Version 2
mpc.version = '2';

mpc.baseMVA = 1000;

%% bus data

%	bus_i	type	Pd	Qd	Gs	Bs	area	Vm	Va	baseKV	zone	Vmax	Vmin
mpc.bus = [
	1	3	186.0	0.0	0	0	1	1	0	220.0	1	1.1	0.9;
	2	1	0.0	0.0	0	0	1	1	0	380.0	1	1.1	0.9;
	3	1	33.0	0.0	0	0	1	1	0	380.0	1	1.1	0.9;
	4	1	54.0	0.0	0	0	1	1	0	380.0	1	1.1	0.9;
	5	1	0.0	0.0	0	0	1	1	0	380.0	1	1.1	0.9;
	6	1	157.0	0.0	0	0	1	1	0	220.0	1	1.1	0.9;
	7	1	119.0	0.0	0	0	1	1	0	380.0	1	1.1	0.9;
	8	1	99.0	0.0	0	0	1	1	0	380.0	1	1.1	0.9;
	9	1	67.0	0.0	0	0	1	1	0	380.0	1	1.1	0.9;
	10	1	0.0	0.0	0	0	1	1	0	380.0	1	1.1	0.9;
	11	1	59.0	0.0	0	0	1	1	0	220.0	1	1.1	0.9;
	12	1	0.0	0.0	0	0	1	1	0	380.0	1	1.1	0.9;
	13	1	0.0	0.0	0	0	1	1	0	380.0	1	1.1	0.9;
	14	1	141.0	0.0	0	0	1	1	0	220.0	1	1.1	0.9;
	15	1	0.0	0.0	0	0	1	1	0	380.0	1	1.1	0.9;
	16	1	240.0	0.0	0	0	1	1	0	380.0	1	1.1	0.9;
	17	1	56.0	0.0	0	0	1	1	0	380.0	1	1.1	0.9;
	18	1	0.0	0.0	0	0	1	1	0	380.0	1	1.1	0.9;
	19	1	139.0	0.0	0	0	1	1	0	220.0	1	1.1	0.9;
	20	1	0.0	0.0	0	0	1	1	0	380.0	1	1.1	0.9;
	21	1	600.0	0.0	0	0	1	1	0	380.0	1	1.1	0.9;
	22	1	0.0	0.0	0	0	1	1	0	380.0	1	1.1	0.9;
	23	1	79.0	0.0	0	0	1	1	0	220.0	1	1.1	0.9;
	24	1	0.0	0.0	0	0	1	1	0	380.0	1	1.1	0.9;
	25	1	38.0	0.0	0	0	1	1	0	380.0	1	1.1	0.9;
	26	1	0.0	0.0	0	0	1	1	0	380.0	1	1.1	0.9;
	27	1	46.0	0.0	0	0	1	1	0	220.0	1	1.1	0.9;
	28	1	136.0	0.0	0	0	1	1	0	220.0	1	1.1	0.9;
	29	1	50.0	0.0	0	0	1	1	0	380.0	1	1.1	0.9;
	30	1	0.0	0.0	0	0	1	1	0	380.0	1	1.1	0.9;
	31	1	98.0	0.0	0	0	1	1	0	380.0	1	1.1	0.9;
	32	1	0.0	0.0	0	0	1	1	0	380.0	1	1.1	0.9;
	33	1	123.0	0.0	0	0	1	1	0	380.0	1	1.1	0.9;
	34	1	24.0	0.0	0	0	1	1	0	220.0	1	1.1	0.9;
	35	1	2.0	0.0	0	0	1	1	0	220.0	1	1.1	0.9;
	36	1	5.0	0.0	0	0	1	1	0	220.0	1	1.1	0.9;
	37	1	0.0	0.0	0	0	1	1	0	380.0	1	1.1	0.9;
	38	1	129.0	0.0	0	0	1	1	0	380.0	1	1.1	0.9;
	39	1	42.0	0.0	0	0	1	1	0	380.0	1	1.1	0.9;
	40	1	44.0	0.0	0	0	1	1	0	380.0	1	1.1	0.9;
	41	1	48.0	0.0	0	0	1	1	0	380.0	1	1.1	0.9;
	42	1	0.0	0.0	0	0	1	1	0	380.0	1	1.1	0.9;
	43	1	73.0	0.0	0	0	1	1	0	220.0	1	1.1	0.9;
	44	1	93.0	0.0	0	0	1	1	0	220.0	1	1.1	0.9;
	45	1	50.0	0.0	0	0	1	1	0	220.0	1	1.1	0.9;
	46	1	0.0	0.0	0	0	1	1	0	380.0	1	1.1	0.9;
	47	1	215.0	0.0	0	0	1	1	0	380.0	1	1.1	0.9;
	48	1	148.0	0.0	0	0	1	1	0	380.0	1	1.1	0.9;
	49	1	37.0	0.0	0	0	1	1	0	380.0	1	1.1	0.9;
	50	1	55.0	0.0	0	0	1	1	0	380.0	1	1.1	0.9;
	51	1	71.0	0.0	0	0	1	1	0	380.0	1	1.1	0.9;
	52	1	0.0	0.0	0	0	1	1	0	380.0	1	1.1	0.9;
	53	1	107.0	0.0	0	0	1	1	0	380.0	1	1.1	0.9;
	54	1	54.0	0.0	0	0	1	1	0	380.0	1	1.1	0.9;
	55	1	53.0	0.0	0	0	1	1	0	220.0	1	1.1	0.9;
	56	1	0.0	0.0	0	0	1	1	0	380.0	1	1.1	0.9;
	57	1	64.0	0.0	0	0	1	1	0	220.0	1	1.1	0.9;
	58	1	146.0	0.0	0	0	1	1	0	220.0	1	1.1	0.9;
	59	1	42.0	0.0	0	0	1	1	0	380.0	1	1.1	0.9;
	60	1	22.0	0.0	0	0	1	1	0	380.0	1	1.1	0.9;
	61	1	0.0	0.0	0	0	1	1	0	380.0	1	1.1	0.9;
	62	1	168.0	0.0	0	0	1	1	0	220.0	1	1.1	0.9;
	63	1	99.0	0.0	0	0	1	1	0	220.0	1	1.1	0.9;
	64	1	1050.0	0.0	0	0	1	1	0	380.0	1	1.1	0.9;
	65	1	3.0	0.0	0	0	1	1	0	380.0	1	1.1	0.9;
	66	1	111.0	0.0	0	0	1	1	0	380.0	1	1.1	0.9;
	67	1	238.0	0.0	0	0	1	1	0	380.0	1	1.1	0.9;
	68	1	0.0	0.0	0	0	1	1	0	380.0	1	1.1	0.9;
	69	1	0.0	0.0	0	0	1	1	0	380.0	1	1.1	0.9;
	70	1	451.0	0.0	0	0	1	1	0	380.0	1	1.1	0.9;
	71	1	105.0	0.0	0	0	1	1	0	380.0	1	1.1	0.9;
	72	1	172.0	0.0	0	0	1	1	0	380.0	1	1.1	0.9;
	73	1	55.0	0.0	0	0	1	1	0	380.0	1	1.1	0.9;
	74	1	0.0	0.0	0	0	1	1	0	380.0	1	1.1	0.9;
	75	1	68.0	0.0	0	0	1	1	0	380.0	1	1.1	0.9;
	76	1	66.0	0.0	0	0	1	1	0	380.0	1	1.1	0.9;
	77	1	64.0	0.0	0	0	1	1	0	380.0	1	1.1	0.9;
	78	1	0.0	0.0	0	0	1	1	0	380.0	1	1.1	0.9;
	79	1	66.0	0.0	0	0	1	1	0	380.0	1	1.1	0.9;
	80	1	70.0	0.0	0	0	1	1	0	380.0	1	1.1	0.9;
	81	1	79.0	0.0	0	0	1	1	0	380.0	1	1.1	0.9;
	82	1	3.0	0.0	0	0	1	1	0	220.0	1	1.1	0.9;
	83	1	176.0	0.0	0	0	1	1	0	220.0	1	1.1	0.9;
	84	1	17.0	0.0	0	0	1	1	0	220.0	1	1.1	0.9;
	85	1	60.0	0.0	0	0	1	1	0	380.0	1	1.1	0.9;
	86	1	0.0	0.0	0	0	1	1	0	380.0	1	1.1	0.9;
	87	1	0.0	0.0	0	0	1	1	0	380.0	1	1.1	0.9;
	88	1	49.0	0.0	0	0	1	1	0	220.0	1	1.1	0.9;
	89	1	60.0	0.0	0	0	1	1	0	220.0	1	1.1	0.9;
	90	1	70.0	0.0	0	0	1	1	0	380.0	1	1.1	0.9;
	91	1	24.0	0.0	0	0	1	1	0	380.0	1	1.1	0.9;
	92	1	26.0	0.0	0	0	1	1	0	380.0	1	1.1	0.9;
	93	1	26.0	0.0	0	0	1	1	0	380.0	1	1.1	0.9;
	94	1	0.0	0.0	0	0	1	1	0	380.0	1	1.1	0.9;
	95	1	0.0	0.0	0	0	1	1	0	380.0	1	1.1	0.9;
	96	1	0.0	0.0	0	0	1	1	0	380.0	1	1.1	0.9;
	97	1	4.0	0.0	0	0	1	1	0	380.0	1	1.1	0.9;
	98	1	67.0	0.0	0	0	1	1	0	380.0	1	1.1	0.9;
	99	1	0.0	0.0	0	0	1	1	0	380.0	1	1.1	0.9;
	100	1	0.0	0.0	0	0	1	1	0	380.0	1	1.1	0.9;
	101	1	47.0	0.0	0	0	1	1	0	380.0	1	1.1	0.9;
	102	1	92.0	0.0	0	0	1	1	0	380.0	1	1.1	0.9;
	103	1	107.0	0.0	0	0	1	1	0	380.0	1	1.1	0.9;
	104	1	0.0	0.0	0	0	1	1	0	380.0	1	1.1	0.9;
	105	1	0.0	0.0	0	0	1	1	0	380.0	1	1.1	0.9;
	106	1	0.0	0.0	0	0	1	1	0	380.0	1	1.1	0.9;
	107	1	0.0	0.0	0	0	1	1	0	380.0	1	1.1	0.9;
	108	1	76.0	0.0	0	0	1	1	0	380.0	1	1.1	0.9;
	109	1	31.0	0.0	0	0	1	1	0	380.0	1	1.1	0.9;
	110	1	40.0	0.0	0	0	1	1	0	380.0	1	1.1	0.9;
	111	1	70.0	0.0	0	0	1	1	0	380.0	1	1.1	0.9;
	112	1	35.0	0.0	0	0	1	1	0	380.0	1	1.1	0.9;
	113	1	56.0	0.0	0	0	1	1	0	380.0	1	1.1	0.9;
	114	1	82.0	0.0	0	0	1	1	0	380.0	1	1.1	0.9;
	115	1	53.0	0.0	0	0	1	1	0	220.0	1	1.1	0.9;
	116	1	89.0	0.0	0	0	1	1	0	220.0	1	1.1	0.9;
	117	1	0.0	0.0	0	0	1	1	0	380.0	1	1.1	0.9;
	118	1	138.0	0.0	0	0	1	1	0	380.0	1	1.1	0.9;
	119	1	27.0	0.0	0	0	1	1	0	380.0	1	1.1	0.9;
	120	1	0.0	0.0	0	0	1	1	0	380.0	1	1.1	0.9;
	121	1	36.0	0.0	0	0	1	1	0	380.0	1	1.1	0.9;
	122	1	32.0	0.0	0	0	1	1	0	380.0	1	1.1	0.9;
	123	1	0.0	0.0	0	0	1	1	0	380.0	1	1.1	0.9;
	124	1	0.0	0.0	0	0	1	1	0	380.0	1	1.1	0.9;
	125	1	0.0	0.0	0	0	1	1	0	380.0	1	1.1	0.9;
	126	1	166.0	0.0	0	0	1	1	0	380.0	1	1.1	0.9;
	127	1	129.0	0.0	0	0	1	1	0	380.0	1	1.1	0.9;
	128	1	0.0	0.0	0	0	1	1	0	380.0	1	1.1	0.9;
	129	1	0.0	0.0	0	0	1	1	0	380.0	1	1.1	0.9;
	130	1	177.0	0.0	0	0	1	1	0	380.0	1	1.1	0.9;
	131	1	39.0	0.0	0	0	1	1	0	380.0	1	1.1	0.9;
	132	1	102.0	0.0	0	0	1	1	0	380.0	1	1.1	0.9;
	133	1	34.0	0.0	0	0	1	1	0	380.0	1	1.1	0.9;
	134	1	34.0	0.0	0	0	1	1	0	220.0	1	1.1	0.9;
	135	1	34.0	0.0	0	0	1	1	0	380.0	1	1.1	0.9;
	136	1	33.0	0.0	0	0	1	1	0	380.0	1	1.1	0.9;
	137	1	26.0	0.0	0	0	1	1	0	220.0	1	1.1	0.9;
	138	1	0.0	0.0	0	0	1	1	0	380.0	1	1.1	0.9;
	139	1	52.0	0.0	0	0	1	1	0	220.0	1	1.1	0.9;
	140	1	36.0	0.0	0	0	1	1	0	220.0	1	1.1	0.9;
	141	1	42.0	0.0	0	0	1	1	0	220.0	1	1.1	0.9;
	142	1	47.0	0.0	0	0	1	1	0	220.0	1	1.1	0.9;
	143	1	0.0	0.0	0	0	1	1	0	380.0	1	1.1	0.9;
	144	1	42.0	0.0	0	0	1	1	0	220.0	1	1.1	0.9;
	145	1	123.0	0.0	0	0	1	1	0	220.0	1	1.1	0.9;
	146	1	159.0	0.0	0	0	1	1	0	220.0	1	1.1	0.9;
	147	1	98.0	0.0	0	0	1	1	0	220.0	1	1.1	0.9;
	148	1	138.0	0.0	0	0	1	1	0	220.0	1	1.1	0.9;
	149	1	89.0	0.0	0	0	1	1	0	220.0	1	1.1	0.9;
	150	1	116.0	0.0	0	0	1	1	0	220.0	1	1.1	0.9;
	151	1	27.0	0.0	0	0	1	1	0	220.0	1	1.1	0.9;
	152	1	57.0	0.0	0	0	1	1	0	220.0	1	1.1	0.9;
	153	1	101.0	0.0	0	0	1	1	0	220.0	1	1.1	0.9;
	154	1	104.0	0.0	0	0	1	1	0	220.0	1	1.1	0.9;
	155	1	108.0	0.0	0	0	1	1	0	220.0	1	1.1	0.9;
	156	1	0.0	0.0	0	0	1	1	0	380.0	1	1.1	0.9;
	157	1	0.0	0.0	0	0	1	1	0	380.0	1	1.1	0.9;
	158	1	28.0	0.0	0	0	1	1	0	380.0	1	1.1	0.9;
	159	1	0.0	0.0	0	0	1	1	0	380.0	1	1.1	0.9;
	160	1	0.0	0.0	0	0	1	1	0	380.0	1	1.1	0.9;
	161	1	88.0	0.0	0	0	1	1	0	220.0	1	1.1	0.9;
	162	1	132.0	0.0	0	0	1	1	0	220.0	1	1.1	0.9;
	163	1	26.0	0.0	0	0	1	1	0	380.0	1	1.1	0.9;
	164	1	27.0	0.0	0	0	1	1	0	380.0	1	1.1	0.9;
	165	1	0.0	0.0	0	0	1	1	0	380.0	1	1.1	0.9;
	166	1	31.0	0.0	0	0	1	1	0	380.0	1	1.1	0.9;
	167	1	44.0	0.0	0	0	1	1	0	220.0	1	1.1	0.9;
	168	1	30.0	0.0	0	0	1	1	0	380.0	1	1.1	0.9;
	169	1	102.0	0.0	0	0	1	1	0	220.0	1	1.1	0.9;
	170	1	77.0	0.0	0	0	1	1	0	220.0	1	1.1	0.9;
	171	1	65.0	0.0	0	0	1	1	0	220.0	1	1.1	0.9;
	172	1	32.0	0.0	0	0	1	1	0	220.0	1	1.1	0.9;
	173	1	31.0	0.0	0	0	1	1	0	380.0	1	1.1	0.9;
	174	1	46.0	0.0	0	0	1	1	0	220.0	1	1.1	0.9;
	175	1	31.0	0.0	0	0	1	1	0	220.0	1	1.1	0.9;
	176	1	107.0	0.0	0	0	1	1	0	220.0	1	1.1	0.9;
	177	1	17.0	0.0	0	0	1	1	0	220.0	1	1.1	0.9;
	178	1	92.0	0.0	0	0	1	1	0	220.0	1	1.1	0.9;
	179	1	34.0	0.0	0	0	1	1	0	220.0	1	1.1	0.9;
	180	1	30.0	0.0	0	0	1	1	0	220.0	1	1.1	0.9;
	181	1	23.0	0.0	0	0	1	1	0	220.0	1	1.1	0.9;
	182	1	1.0	0.0	0	0	1	1	0	220.0	1	1.1	0.9;
	183	1	306.0	0.0	0	0	1	1	0	380.0	1	1.1	0.9;
	184	1	0.0	0.0	0	0	1	1	0	380.0	1	1.1	0.9;
	185	1	65.0	0.0	0	0	1	1	0	220.0	1	1.1	0.9;
	186	1	35.0	0.0	0	0	1	1	0	380.0	1	1.1	0.9;
	187	1	21.0	0.0	0	0	1	1	0	380.0	1	1.1	0.9;
	188	1	31.0	0.0	0	0	1	1	0	220.0	1	1.1	0.9;
	189	1	112.0	0.0	0	0	1	1	0	380.0	1	1.1	0.9;
	190	1	149.0	0.0	0	0	1	1	0	380.0	1	1.1	0.9;
	191	1	0.0	0.0	0	0	1	1	0	380.0	1	1.1	0.9;
	192	1	36.0	0.0	0	0	1	1	0	220.0	1	1.1	0.9;
	193	1	31.0	0.0	0	0	1	1	0	220.0	1	1.1	0.9;
	194	1	21.0	0.0	0	0	1	1	0	380.0	1	1.1	0.9;
	195	1	0.0	0.0	0	0	1	1	0	380.0	1	1.1	0.9;
	196	1	30.0	0.0	0	0	1	1	0	220.0	1	1.1	0.9;
	197	1	47.0	0.0	0	0	1	1	0	220.0	1	1.1	0.9;
	198	1	28.0	0.0	0	0	1	1	0	380.0	1	1.1	0.9;
	199	1	36.0	0.0	0	0	1	1	0	220.0	1	1.1	0.9;
	200	1	31.0	0.0	0	0	1	1	0	220.0	1	1.1	0.9;
...
];
%% generator data
%	bus	Pg	Qg	Qmax	Qmin	Vg	mBase	status	Pmax	Pmin	Pc1	Pc2	Qc1min	Qc1max	Qc2min	Qc2max	ramp_agc	ramp_10	ramp_30	ramp_q	apf
mpc.gen = [
	1	0	0	0	0	1	1000	1	121.0	0	0	0	0	0	0	0	0	0	0	0	0;
	1	0	0	0	0	1	1000	1	272.0	0	0	0	0	0	0	0	0	0	0	0	0;
	102	0	0	0	0	1	1000	1	67.9	0	0	0	0	0	0	0	0	0	0	0	0;
	108	0	0	0	0	1	1000	1	63.1	0	0	0	0	0	0	0	0	0	0	0	0;
	108	0	0	0	0	1	1000	1	38.0	0	0	0	0	0	0	0	0	0	0	0	0;
	111	0	0	0	0	1	1000	1	13.5	0	0	0	0	0	0	0	0	0	0	0	0;
	112	0	0	0	0	1	1000	1	13.5	0	0	0	0	0	0	0	0	0	0	0	0;
	112	0	0	0	0	1	1000	1	11.1	0	0	0	0	0	0	0	0	0	0	0	0;
	114	0	0	0	0	1	1000	1	19.0	0	0	0	0	0	0	0	0	0	0	0	0;
	115	0	0	0	0	1	1000	1	4730.0	0	0	0	0	0	0	0	0	0	0	0	0;
	116	0	0	0	0	1	1000	1	543.3	0	0	0	0	0	0	0	0	0	0	0	0;
	118	0	0	0	0	1	1000	1	95.0	0	0	0	0	0	0	0	0	0	0	0	0;
	118	0	0	0	0	1	1000	1	12.0	0	0	0	0	0	0	0	0	0	0	0	0;
	119	0	0	0	0	1	1000	1	9.3	0	0	0	0	0	0	0	0	0	0	0	0;
	119	0	0	0	0	1	1000	1	16.9	0	0	0	0	0	0	0	0	0	0	0	0;
	119	0	0	0	0	1	1000	1	61.5	0	0	0	0	0	0	0	0	0	0	0	0;
	121	0	0	0	0	1	1000	1	24.6	0	0	0	0	0	0	0	0	0	0	0	0;
	526	0	0	0	0	1	1000	1	3455.0	0	0	0	0	0	0	0	0	0	0	0	0;
	526	0	0	0	0	1	1000	1	96.5	0	0	0	0	0	0	0	0	0	0	0	0;
	126	0	0	0	0	1	1000	1	2.0	0	0	0	0	0	0	0	0	0	0	0	0;
	126	0	0	0	0	1	1000	1	60.0	0	0	0	0	0	0	0	0	0	0	0	0;
	127	0	0	0	0	1	1000	1	1800.0	0	0	0	0	0	0	0	0	0	0	0	0;
	127	0	0	0	0	1	1000	1	24.0	0	0	0	0	0	0	0	0	0	0	0	0;
	529	0	0	0	0	1	1000	1	36.4	0	0	0	0	0	0	0	0	0	0	0	0;
	530	0	0	0	0	1	1000	1	61.5	0	0	0	0	0	0	0	0	0	0	0	0;
	493	0	0	0	0	1	1000	1	150.0	0	0	0	0	0	0	0	0	0	0	0	0;
	493	0	0	0	0	1	1000	1	30.0	0	0	0	0	0	0	0	0	0	0	0	0;
	130	0	0	0	0	1	1000	1	85.0	0	0	0	0	0	0	0	0	0	0	0	0;
	130	0	0	0	0	1	1000	1	30.0	0	0	0	0	0	0	0	0	0	0	0	0;
	131	0	0	0	0	1	1000	1	586.3	0	0	0	0	0	0	0	0	0	0	0	0;
	132	0	0	0	0	1	1000	1	29.0	0	0	0	0	0	0	0	0	0	0	0	0;
	133	0	0	0	0	1	1000	1	137.0	0	0	0	0	0	0	0	0	0	0	0	0;
	133	0	0	0	0	1	1000	1	33.4	0	0	0	0	0	0	0	0	0	0	0	0;
	134	0	0	0	0	1	1000	1	118.0	0	0	0	0	0	0	0	0	0	0	0	0;
	136	0	0	0	0	1	1000	1	838.0	0	0	0	0	0	0	0	0	0	0	0	0;
	136	0	0	0	0	1	1000	1	765.0	0	0	0	0	0	0	0	0	0	0	0	0;
	137	0	0	0	0	1	1000	1	11.4	0	0	0	0	0	0	0	0	0	0	0	0;
	139	0	0	0	0	1	1000	1	760.0	0	0	0	0	0	0	0	0	0	0	0	0;
	14	0	0	0	0	1	1000	1	27.0	0	0	0	0	0	0	0	0	0	0	0	0;
	140	0	0	0	0	1	1000	1	11.1	0	0	0	0	0	0	0	0	0	0	0	0;
	141	0	0	0	0	1	1000	1	64.7	0	0	0	0	0	0	0	0	0	0	0	0;
	142	0	0	0	0	1	1000	1	9.8	0	0	0	0	0	0	0	0	0	0	0	0;
	142	0	0	0	0	1	1000	1	449.0	0	0	0	0	0	0	0	0	0	0	0	0;
	145	0	0	0	0	1	1000	1	75.3	0	0	0	0	0	0	0	0	0	0	0	0;
	145	0	0	0	0	1	1000	1	536.5	0	0	0	0	0	0	0	0	0	0	0	0;
	145	0	0	0	0	1	1000	1	79.8	0	0	0	0	0	0	0	0	0	0	0	0;
	145	0	0	0	0	1	1000	1	45.1	0	0	0	0	0	0	0	0	0	0	0	0;
	146	0	0	0	0	1	1000	1	84.0	0	0	0	0	0	0	0	0	0	0	0	0;
	147	0	0	0	0	1	1000	1	230.0	0	0	0	0	0	0	0	0	0	0	0	0;
	148	0	0	0	0	1	1000	1	10.2	0	0	0	0	0	0	0	0	0	0	0	0;
	148	0	0	0	0	1	1000	1	86.2	0	0	0	0	0	0	0	0	0	0	0	0;
	148	0	0	0	0	1	1000	1	53.7	0	0	0	0	0	0	0	0	0	0	0	0;
	149	0	0	0	0	1	1000	1	128.7	0	0	0	0	0	0	0	0	0	0	0	0;
	150	0	0	0	0	1	1000	1	15.8	0	0	0	0	0	0	0	0	0	0	0	0;
	153	0	0	0	0	1	1000	1	12.0	0	0	0	0	0	0	0	0	0	0	0	0;
	155	0	0	0	0	1	1000	1	12.6	0	0	0	0	0	0	0	0	0	0	0	0;
	533	0	0	0	0	1	1000	1	28.9	0	0	0	0	0	0	0	0	0	0	0	0;
	534	0	0	0	0	1	1000	1	857.0	0	0	0	0	0	0	0	0	0	0	0	0;
	534	0	0	0	0	1	1000	1	22.0	0	0	0	0	0	0	0	0	0	0	0	0;
	16	0	0	0	0	1	1000	1	11.4	0	0	0	0	0	0	0	0	0	0	0	0;
	536	0	0	0	0	1	1000	1	103.0	0	0	0	0	0	0	0	0	0	0	0	0;
	536	0	0	0	0	1	1000	1	14.0	0	0	0	0	0	0	0	0	0	0	0	0;
	161	0	0	0	0	1	1000	1	58.58	0	0	0	0	0	0	0	0	0	0	0	0;
	166	0	0	0	0	1	1000	1	333.6	0	0	0	0	0	0	0	0	0	0	0	0;
	166	0	0	0	0	1	1000	1	1324.5	0	0	0	0	0	0	0	0	0	0	0	0;
	167	0	0	0	0	1	1000	1	26.0	0	0	0	0	0	0	0	0	0	0	0	0;
	167	0	0	0	0	1	1000	1	46.9	0	0	0	0	0	0	0	0	0	0	0	0;
	169	0	0	0	0	1	1000	1	33.7	0	0	0	0	0	0	0	0	0	0	0	0;
	170	0	0	0	0	1	1000	1	23.1	0	0	0	0	0	0	0	0	0	0	0	0;
	170	0	0	0	0	1	1000	1	61.5	0	0	0	0	0	0	0	0	0	0	0	0;
	174	0	0	0	0	1	1000	1	24.5	0	0	0	0	0	0	0	0	0	0	0	0;
	174	0	0	0	0	1	1000	1	38.0	0	0	0	0	0	0	0	0	0	0	0	0;
	175	0	0	0	0	1	1000	1	95.0	0	0	0	0	0	0	0	0	0	0	0	0;
	175	0	0	0	0	1	1000	1	21.0	0	0	0	0	0	0	0	0	0	0	0	0;
	176	0	0	0	0	1	1000	1	3.3	0	0	0	0	0	0	0	0	0	0	0	0;
	177	0	0	0	0	1	1000	1	32.7	0	0	0	0	0	0	0	0	0	0	0	0;
	178	0	0	0	0	1	1000	1	9.2	0	0	0	0	0	0	0	0	0	0	0	0;
	178	0	0	0	0	1	1000	1	15.0	0	0	0	0	0	0	0	0	0	0	0	0;
	180	0	0	0	0	1	1000	1	25.4	0	0	0	0	0	0	0	0	0	0	0	0;
	180	0	0	0	0	1	1000	1	333.5	0	0	0	0	0	0	0	0	0	0	0	0;
	180	0	0	0	0	1	1000	1	28.9	0	0	0	0	0	0	0	0	0	0	0	0;
	183	0	0	0	0	1	1000	1	22.5	0	0	0	0	0	0	0	0	0	0	0	0;
	183	0	0	0	0	1	1000	1	766.0	0	0	0	0	0	0	0	0	0	0	0	0;
	183	0	0	0	0	1	1000	1	38.0	0	0	0	0	0	0	0	0	0	0	0	0;
	183	0	0	0	0	1	1000	1	24.0	0	0	0	0	0	0	0	0	0	0	0	0;
	538	0	0	0	0	1	1000	1	22.3	0	0	0	0	0	0	0	0	0	0	0	0;
	185	0	0	0	0	1	1000	1	33.1	0	0	0	0	0	0	0	0	0	0	0	0;
	188	0	0	0	0	1	1000	1	274.0	0	0	0	0	0	0	0	0	0	0	0	0;
	496	0	0	0	0	1	1000	1	52.8	0	0	0	0	0	0	0	0	0	0	0	0;
	19	0	0	0	0	1	1000	1	10.6	0	0	0	0	0	0	0	0	0	0	0	0;
	19	0	0	0	0	1	1000	1	370.0	0	0	0	0	0	0	0	0	0	0	0	0;
	190	0	0	0	0	1	1000	1	13.4	0	0	0	0	0	0	0	0	0	0	0	0;
	194	0	0	0	0	1	1000	1	1017.0	0	0	0	0	0	0	0	0	0	0	0	0;
	196	0	0	0	0	1	1000	1	695.0	0	0	0	0	0	0	0	0	0	0	0	0;
	196	0	0	0	0	1	1000	1	700.0	0	0	0	0	0	0	0	0	0	0	0	0;
	197	0	0	0	0	1	1000	1	40.1	0	0	0	0	0	0	0	0	0	0	0	0;
	198	0	0	0	0	1	1000	1	15.0	0	0	0	0	0	0	0	0	0	0	0	0;
	200	0	0	0	0	1	1000	1	27.5	0	0	0	0	0	0	0	0	0	0	0	0;
	200	0	0	0	0	1	1000	1	7.4	0	0	0	0	0	0	0	0	0	0	0	0;
	541	0	0	0	0	1	1000	1	58.1	0	0	0	0	0	0	0	0	0	0	0	0;
	202	0	0	0	0	1	1000	1	1870.1	0	0	0	0	0	0	0	0	0	0	0	0;
	202	0	0	0	0	1	1000	1	1329.0	0	0	0	0	0	0	0	0	0	0	0	0;
	203	0	0	0	0	1	1000	1	20.5	0	0	0	0	0	0	0	0	0	0	0	0;
	204	0	0	0	0	1	1000	1	310.0	0	0	0	0	0	0	0	0	0	0	0	0;
	205	0	0	0	0	1	1000	1	417.0	0	0	0	0	0	0	0	0	0	0	0	0;
	209	0	0	0	0	1	1000	1	26.0	0	0	0	0	0	0	0	0	0	0	0	0;
	21	0	0	0	0	1	1000	1	127.0	0	0	0	0	0	0	0	0	0	0	0	0;
	21	0	0	0	0	1	1000	1	194.0	0	0	0	0	0	0	0	0	0	0	0	0;
	21	0	0	0	0	1	1000	1	16.4	0	0	0	0	0	0	0	0	0	0	0	0;
	210	0	0	0	0	1	1000	1	14.7	0	0	0	0	0	0	0	0	0	0	0	0;
	211	0	0	0	0	1	1000	1	721.0	0	0	0	0	0	0	0	0	0	0	0	0;
	211	0	0	0	0	1	1000	1	11.6	0	0	0	0	0	0	0	0	0	0	0	0;
	212	0	0	0	0	1	1000	1	24.0	0	0	0	0	0	0	0	0	0	0	0	0;
	213	0	0	0	0	1	1000	1	104.6	0	0	0	0	0	0	0	0	0	0	0	0;
	214	0	0	0	0	1	1000	1	27.0	0	0	0	0	0	0	0	0	0	0	0	0;
	215	0	0	0	0	1	1000	1	47.2	0	0	0	0	0	0	0	0	0	0	0	0;
	215	0	0	0	0	1	1000	1	73.4	0	0	0	0	0	0	0	0	0	0	0	0;
	217	0	0	0	0	1	1000	1	108.0	0	0	0	0	0	0	0	0	0	0	0	0;
	217	0	0	0	0	1	1000	1	508.0	0	0	0	0	0	0	0	0	0	0	0	0;
	217	0	0	0	0	1	1000	1	17.0	0	0	0	0	0	0	0	0	0	0	0	0;
	219	0	0	0	0	1	1000	1	254.5	0	0	0	0	0	0	0	0	0	0	0	0;
	219	0	0	0	0	1	1000	1	34.0	0	0	0	0	0	0	0	0	0	0	0	0;
	221	0	0	0	0	1	1000	1	7.8	0	0	0	0	0	0	0	0	0	0	0	0;
	222	0	0	0	0	1	1000	1	99.0	0	0	0	0	0	0	0	0	0	0	0	0;
	223	0	0	0	0	1	1000	1	87.0	0	0	0	0	0	0	0	0	0	0	0	0;
	224	0	0	0	0	1	1000	1	176.1	0	0	0	0	0	0	0	0	0	0	0	0;
	225	0	0	0	0	1	1000	1	11.6	0	0	0	0	0	0	0	0	0	0	0	0;
	225	0	0	0	0	1	1000	1	13.4	0	0	0	0	0	0	0	0	0	0	0	0;
	225	0	0	0	0	1	1000	1	15.0	0	0	0	0	0	0	0	0	0	0	0	0;
	226	0	0	0	0	1	1000	1	20.0	0	0	0	0	0	0	0	0	0	0	0	0;
	226	0	0	0	0	1	1000	1	0.1	0	0	0	0	0	0	0	0	0	0	0	0;
	227	0	0	0	0	1	1000	1	11.0	0	0	0	0	0	0	0	0	0	0	0	0;
	229	0	0	0	0	1	1000	1	24.5	0	0	0	0	0	0	0	0	0	0	0	0;
	229	0	0	0	0	1	1000	1	1958.0	0	0	0	0	0	0	0	0	0	0	0	0;
	498	0	0	0	0	1	1000	1	298.5	0	0	0	0	0	0	0	0	0	0	0	0;
	545	0	0	0	0	1	1000	1	4.0	0	0	0	0	0	0	0	0	0	0	0	0;
	545	0	0	0	0	1	1000	1	20.7	0	0	0	0	0	0	0	0	0	0	0	0;
	235	0	0	0	0	1	1000	1	19.7	0	0	0	0	0	0	0	0	0	0	0	0;
	238	0	0	0	0	1	1000	1	12.1	0	0	0	0	0	0	0	0	0	0	0	0;
	239	0	0	0	0	1	1000	1	800.0	0	0	0	0	0	0	0	0	0	0	0	0;
	240	0	0	0	0	1	1000	1	126.0	0	0	0	0	0	0	0	0	0	0	0	0;
	243	0	0	0	0	1	1000	1	61.5	0	0	0	0	0	0	0	0	0	0	0	0;
	244	0	0	0	0	1	1000	1	510.0	0	0	0	0	0	0	0	0	0	0	0	0;
	547	0	0	0	0	1	1000	1	34.5	0	0	0	0	0	0	0	0	0	0	0	0;
	547	0	0	0	0	1	1000	1	633.2	0	0	0	0	0	0	0	0	0	0	0	0;
	548	0	0	0	0	1	1000	1	895.0	0	0	0	0	0	0	0	0	0	0	0	0;
	247	0	0	0	0	1	1000	1	14.6	0	0	0	0	0	0	0	0	0	0	0	0;
	549	0	0	0	0	1	1000	1	396.6	0	0	0	0	0	0	0	0	0	0	0	0;
	252	0	0	0	0	1	1000	1	10.7	0	0	0	0	0	0	0	0	0	0	0	0;
	253	0	0	0	0	1	1000	1	84.8	0	0	0	0	0	0	0	0	0	0	0	0;
	256	0	0	0	0	1	1000	1	32.0	0	0	0	0	0	0	0	0	0	0	0	0;
	256	0	0	0	0	1	1000	1	28.0	0	0	0	0	0	0	0	0	0	0	0	0;
	258	0	0	0	0	1	1000	1	138.5	0	0	0	0	0	0	0	0	0	0	0	0;
	264	0	0	0	0	1	1000	1	59.9	0	0	0	0	0	0	0	0	0	0	0	0;
	264	0	0	0	0	1	1000	1	92.8	0	0	0	0	0	0	0	0	0	0	0	0;
	264	0	0	0	0	1	1000	1	214.0	0	0	0	0	0	0	0	0	0	0	0	0;
	264	0	0	0	0	1	1000	1	9.0	0	0	0	0	0	0	0	0	0	0	0	0;
	500	0	0	0	0	1	1000	1	1410.0	0	0	0	0	0	0	0	0	0	0	0	0;
	268	0	0	0	0	1	1000	1	50.0	0	0	0	0	0	0	0	0	0	0	0	0;
	273	0	0	0	0	1	1000	1	42.0	0	0	0	0	0	0	0	0	0	0	0	0;
	273	0	0	0	0	1	1000	1	100.0	0	0	0	0	0	0	0	0	0	0	0	0;
	273	0	0	0	0	1	1000	1	12.5	0	0	0	0	0	0	0	0	0	0	0	0;
	274	0	0	0	0	1	1000	1	110.0	0	0	0	0	0	0	0	0	0	0	0	0;
	274	0	0	0	0	1	1000	1	16.0	0	0	0	0	0	0	0	0	0	0	0	0;
	557	0	0	0	0	1	1000	1	90.8	0	0	0	0	0	0	0	0	0	0	0	0;
	28	0	0	0	0	1	1000	1	260.0	0	0	0	0	0	0	0	0	0	0	0	0;
	28	0	0	0	0	1	1000	1	101.0	0	0	0	0	0	0	0	0	0	0	0	0;
	28	0	0	0	0	1	1000	1	311.8	0	0	0	0	0	0	0	0	0	0	0	0;
	558	0	0	0	0	1	1000	1	74.0	0	0	0	0	0	0	0	0	0	0	0	0;
	559	0	0	0	0	1	1000	1	17.0	0	0	0	0	0	0	0	0	0	0	0	0;
	283	0	0	0	0	1	1000	1	18.1	0	0	0	0	0	0	0	0	0	0	0	0;
	285	0	0	0	0	1	1000	1	64.0	0	0	0	0	0	0	0	0	0	0	0	0;
	286	0	0	0	0	1	1000	1	18.5	0	0	0	0	0	0	0	0	0	0	0	0;
	287	0	0	0	0	1	1000	1	33.4	0	0	0	0	0	0	0	0	0	0	0	0;
	287	0	0	0	0	1	1000	1	794.0	0	0	0	0	0	0	0	0	0	0	0	0;
	288	0	0	0	0	1	1000	1	15.7	0	0	0	0	0	0	0	0	0	0	0	0;
	289	0	0	0	0	1	1000	1	1105.0	0	0	0	0	0	0	0	0	0	0	0	0;
	560	0	0	0	0	1	1000	1	20.3	0	0	0	0	0	0	0	0	0	0	0	0;
	560	0	0	0	0	1	1000	1	216.0	0	0	0	0	0	0	0	0	0	0	0	0;
	560	0	0	0	0	1	1000	1	59.0	0	0	0	0	0	0	0	0	0	0	0	0;
	292	0	0	0	0	1	1000	1	13.5	0	0	0	0	0	0	0	0	0	0	0	0;
	292	0	0	0	0	1	1000	1	11.2	0	0	0	0	0	0	0	0	0	0	0	0;
	293	0	0	0	0	1	1000	1	119.0	0	0	0	0	0	0	0	0	0	0	0	0;
	293	0	0	0	0	1	1000	1	43.3	0	0	0	0	0	0	0	0	0	0	0	0;
	296	0	0	0	0	1	1000	1	37.5	0	0	0	0	0	0	0	0	0	0	0	0;
	297	0	0	0	0	1	1000	1	690.0	0	0	0	0	0	0	0	0	0	0	0	0;
	3	0	0	0	0	1	1000	1	18.8	0	0	0	0	0	0	0	0	0	0	0	0;
	299	0	0	0	0	1	1000	1	13.0	0	0	0	0	0	0	0	0	0	0	0	0;
	300	0	0	0	0	1	1000	1	33.5	0	0	0	0	0	0	0	0	0	0	0	0;
	300	0	0	0	0	1	1000	1	128.0	0	0	0	0	0	0	0	0	0	0	0	0;
	300	0	0	0	0	1	1000	1	56.0	0	0	0	0	0	0	0	0	0	0	0	0;
	300	0	0	0	0	1	1000	1	79.0	0	0	0	0	0	0	0	0	0	0	0	0;
	300	0	0	0	0	1	1000	1	14.7	0	0	0	0	0	0	0	0	0	0	0	0;
	302	0	0	0	0	1	1000	1	34.2	0	0	0	0	0	0	0	0	0	0	0	0;
	302	0	0	0	0	1	1000	1	24.8	0	0	0	0	0	0	0	0	0	0	0	0;
	303	0	0	0	0	1	1000	1	1310.0	0	0	0	0	0	0	0	0	0	0	0	0;
	303	0	0	0	0	1	1000	1	136.0	0	0	0	0	0	0	0	0	0	0	0	0;
	563	0	0	0	0	1	1000	1	27.4	0	0	0	0	0	0	0	0	0	0	0	0;
	563	0	0	0	0	1	1000	1	1275.0	0	0	0	0	0	0	0	0	0	0	0	0;
	501	0	0	0	0	1	1000	1	3.0	0	0	0	0	0	0	0	0	0	0	0	0;
...
];
%% branch data
%    fbus    tbus    r    x    b    rateA    rateB    rateC    ratio    angle    status    angmin    angmax
mpc.branch = [
	1	490	0.05378	0.26977	0.00824	495.0	495.0	495.0	0	0	1	-360	360;
	3	4	0.00755	0.06191	0.09101	3423.0	3423.0	3423.0	0	0	1	-360	360;
	491	6	0.02104	0.10555	0.01290	991.0	991.0	991.0	0	0	1	-360	360;
	7	5	0.00695	0.05702	0.02095	1711.0	1711.0	1711.0	0	0	1	-360	360;
	8	9	0.00293	0.02399	0.03526	3423.0	3423.0	3423.0	0	0	1	-360	360;
	492	11	0.03417	0.17143	0.00524	495.0	495.0	495.0	0	0	1	-360	360;
	11	493	0.05679	0.28489	0.00871	495.0	495.0	495.0	0	0	1	-360	360;
	492	493	0.08478	0.42532	0.01300	495.0	495.0	495.0	0	0	1	-360	360;
	494	14	0.04870	0.24430	0.00747	495.0	495.0	495.0	0	0	1	-360	360;
	13	15	0.01842	0.15102	0.01387	856.0	856.0	856.0	0	0	1	-360	360;
	16	5	0.00753	0.06176	0.02270	1711.0	1711.0	1711.0	0	0	1	-360	360;
	17	18	0.05548	0.45495	0.09404	1283.0	1283.0	1283.0	0	0	1	-360	360;
	17	12	0.00672	0.05512	0.01139	1283.0	1283.0	1283.0	0	0	1	-360	360;
	13	15	0.01844	0.15118	0.01389	856.0	856.0	856.0	0	0	1	-360	360;
	14	495	0.00337	0.01689	0.00206	991.0	991.0	991.0	0	0	1	-360	360;
	494	19	0.01921	0.09638	0.01178	991.0	991.0	991.0	0	0	1	-360	360;
	20	21	0.01300	0.10660	0.00979	856.0	856.0	856.0	0	0	1	-360	360;
	20	22	0.01192	0.09775	0.03592	1711.0	1711.0	1711.0	0	0	1	-360	360;
	497	23	0.00411	0.02060	0.00063	495.0	495.0	495.0	0	0	1	-360	360;
	23	499	0.03900	0.19565	0.02392	991.0	991.0	991.0	0	0	1	-360	360;
	25	26	0.00170	0.01396	0.00513	1711.0	1711.0	1711.0	0	0	1	-360	360;
	25	22	0.00427	0.03501	0.00322	856.0	856.0	856.0	0	0	1	-360	360;
	23	27	0.05201	0.26091	0.00797	495.0	495.0	495.0	0	0	1	-360	360;
	28	23	0.02408	0.12079	0.00369	495.0	495.0	495.0	0	0	1	-360	360;
	8	21	0.01187	0.09736	0.00894	856.0	856.0	856.0	0	0	1	-360	360;
	9	29	0.00531	0.04356	0.01601	1711.0	1711.0	1711.0	0	0	1	-360	360;
	30	25	0.02395	0.19639	0.01804	856.0	856.0	856.0	0	0	1	-360	360;
	31	32	0.03597	0.29498	0.06097	1283.0	1283.0	1283.0	0	0	1	-360	360;
	32	33	0.02011	0.16494	0.03409	1283.0	1283.0	1283.0	0	0	1	-360	360;
	34	35	0.00725	0.03635	0.00111	495.0	495.0	495.0	0	0	1	-360	360;
	35	36	0.00329	0.01648	0.00050	495.0	495.0	495.0	0	0	1	-360	360;
	490	6	0.09254	0.46422	0.01419	495.0	495.0	495.0	0	0	1	-360	360;
	37	10	0.02886	0.23662	0.04891	1283.0	1283.0	1283.0	0	0	1	-360	360;
	10	38	0.00822	0.06739	0.01393	1283.0	1283.0	1283.0	0	0	1	-360	360;
	37	38	0.01725	0.14148	0.11698	2567.0	2567.0	2567.0	0	0	1	-360	360;
	39	40	0.05426	0.44493	0.09197	1283.0	1283.0	1283.0	0	0	1	-360	360;
	39	41	0.02096	0.17188	0.03553	1283.0	1283.0	1283.0	0	0	1	-360	360;
	42	41	0.03737	0.30647	0.06335	1283.0	1283.0	1283.0	0	0	1	-360	360;
	18	42	0.04128	0.33847	0.06996	1283.0	1283.0	1283.0	0	0	1	-360	360;
	492	43	0.06830	0.34262	0.01047	495.0	495.0	495.0	0	0	1	-360	360;
	492	43	0.06822	0.34223	0.01046	495.0	495.0	495.0	0	0	1	-360	360;
	44	45	0.04804	0.24102	0.00737	495.0	495.0	495.0	0	0	1	-360	360;
	44	505	0.01137	0.05702	0.00174	495.0	495.0	495.0	0	0	1	-360	360;
	46	12	0.00353	0.02898	0.01065	1711.0	1711.0	1711.0	0	0	1	-360	360;
	46	12	0.00354	0.02901	0.01066	1711.0	1711.0	1711.0	0	0	1	-360	360;
	47	48	0.00641	0.05259	0.00121	428.0	428.0	428.0	0	0	1	-360	360;
	49	50	0.00230	0.01885	0.00173	856.0	856.0	856.0	0	0	1	-360	360;
	31	33	0.01617	0.13260	0.02741	1283.0	1283.0	1283.0	0	0	1	-360	360;
	31	51	0.00422	0.03462	0.05089	3423.0	3423.0	3423.0	0	0	1	-360	360;
	52	53	0.02513	0.20608	0.07573	1711.0	1711.0	1711.0	0	0	1	-360	360;
	52	54	0.00914	0.07491	0.01548	1283.0	1283.0	1283.0	0	0	1	-360	360;
	506	55	0.02369	0.11884	0.01453	991.0	991.0	991.0	0	0	1	-360	360;
	506	507	0.08280	0.41536	0.01269	495.0	495.0	495.0	0	0	1	-360	360;
	57	506	0.00879	0.04409	0.00539	991.0	991.0	991.0	0	0	1	-360	360;
	57	58	0.02707	0.13579	0.00415	495.0	495.0	495.0	0	0	1	-360	360;
	58	506	0.03712	0.18622	0.00569	495.0	495.0	495.0	0	0	1	-360	360;
	59	60	0.02329	0.19097	0.01754	856.0	856.0	856.0	0	0	1	-360	360;
	508	62	0.09583	0.48077	0.00367	248.0	248.0	248.0	0	0	1	-360	360;
	30	61	0.03772	0.30934	0.02842	856.0	856.0	856.0	0	0	1	-360	360;
	63	506	0.05148	0.25827	0.00789	495.0	495.0	495.0	0	0	1	-360	360;
	13	64	0.00356	0.02918	0.01072	1711.0	1711.0	1711.0	0	0	1	-360	360;
	65	66	0.04534	0.37177	0.07685	1283.0	1283.0	1283.0	0	0	1	-360	360;
	59	67	0.00623	0.05105	0.00469	856.0	856.0	856.0	0	0	1	-360	360;
	61	67	0.01552	0.12725	0.01169	856.0	856.0	856.0	0	0	1	-360	360;
	68	69	0.01338	0.10971	0.04032	1711.0	1711.0	1711.0	0	0	1	-360	360;
	70	69	0.01155	0.09471	0.03480	1711.0	1711.0	1711.0	0	0	1	-360	360;
	71	72	0.01065	0.08737	0.03210	1711.0	1711.0	1711.0	0	0	1	-360	360;
	73	74	0.01504	0.12329	0.02548	1283.0	1283.0	1283.0	0	0	1	-360	360;
	37	75	0.03295	0.27020	0.05585	1283.0	1283.0	1283.0	0	0	1	-360	360;
	72	75	0.00803	0.06582	0.02419	1711.0	1711.0	1711.0	0	0	1	-360	360;
	37	72	0.04347	0.35643	0.07367	1283.0	1283.0	1283.0	0	0	1	-360	360;
	76	77	0.01124	0.09218	0.03387	1711.0	1711.0	1711.0	0	0	1	-360	360;
	76	77	0.01124	0.09218	0.03387	1711.0	1711.0	1711.0	0	0	1	-360	360;
	77	51	0.00872	0.07147	0.02627	1711.0	1711.0	1711.0	0	0	1	-360	360;
	77	51	0.00872	0.07147	0.02627	1711.0	1711.0	1711.0	0	0	1	-360	360;
	73	72	0.03057	0.25067	0.05182	1283.0	1283.0	1283.0	0	0	1	-360	360;
	18	40	0.01563	0.12819	0.02650	1283.0	1283.0	1283.0	0	0	1	-360	360;
	492	45	0.05788	0.29037	0.01997	743.0	743.0	743.0	0	0	1	-360	360;
	10	74	0.03620	0.29685	0.06136	1283.0	1283.0	1283.0	0	0	1	-360	360;
	45	511	0.15381	0.77163	0.00590	248.0	248.0	248.0	0	0	1	-360	360;
	78	32	0.01615	0.13243	0.04867	1711.0	1711.0	1711.0	0	0	1	-360	360;
	79	80	0.00915	0.07501	0.00689	856.0	856.0	856.0	0	0	1	-360	360;
	79	80	0.00914	0.07496	0.00689	856.0	856.0	856.0	0	0	1	-360	360;
	81	79	0.02584	0.21186	0.01946	856.0	856.0	856.0	0	0	1	-360	360;
	81	79	0.02584	0.21191	0.01947	856.0	856.0	856.0	0	0	1	-360	360;
	34	82	0.00291	0.01458	0.00045	495.0	495.0	495.0	0	0	1	-360	360;
	83	84	0.01692	0.08490	0.00259	495.0	495.0	495.0	0	0	1	-360	360;
	83	499	0.07837	0.39314	0.00300	248.0	248.0	248.0	0	0	1	-360	360;
	85	86	0.00963	0.07895	0.02901	1711.0	1711.0	1711.0	0	0	1	-360	360;
	87	86	0.02286	0.18745	0.06888	1711.0	1711.0	1711.0	0	0	1	-360	360;
	88	89	0.00713	0.03577	0.00109	495.0	495.0	495.0	0	0	1	-360	360;
	90	86	0.01452	0.11904	0.04375	1711.0	1711.0	1711.0	0	0	1	-360	360;
	91	86	0.00022	0.00182	0.00067	1711.0	1711.0	1711.0	0	0	1	-360	360;
	86	92	0.00022	0.00182	0.00067	1711.0	1711.0	1711.0	0	0	1	-360	360;
	91	86	0.00022	0.00182	0.00067	1711.0	1711.0	1711.0	0	0	1	-360	360;
	86	93	0.00978	0.08022	0.02948	1711.0	1711.0	1711.0	0	0	1	-360	360;
	94	86	0.01546	0.12678	0.04659	1711.0	1711.0	1711.0	0	0	1	-360	360;
	86	95	0.01251	0.10254	0.03768	1711.0	1711.0	1711.0	0	0	1	-360	360;
	513	517	0.00164	0.00822	0.00025	495.0	495.0	495.0	0	0	1	-360	360;
	97	66	0.04575	0.37518	0.03447	856.0	856.0	856.0	0	0	1	-360	360;
	42	98	0.00742	0.06087	0.02237	1711.0	1711.0	1711.0	0	0	1	-360	360;
	99	100	0.01965	0.16110	0.05920	1711.0	1711.0	1711.0	0	0	1	-360	360;
	42	98	0.00742	0.06085	0.02236	1711.0	1711.0	1711.0	0	0	1	-360	360;
	42	101	0.00980	0.08035	0.02953	1711.0	1711.0	1711.0	0	0	1	-360	360;
	102	42	0.01488	0.12205	0.04485	1711.0	1711.0	1711.0	0	0	1	-360	360;
	103	87	0.00849	0.06960	0.02558	1711.0	1711.0	1711.0	0	0	1	-360	360;
	104	103	0.00346	0.02839	0.01043	1711.0	1711.0	1711.0	0	0	1	-360	360;
	105	87	0.00769	0.06304	0.02317	1711.0	1711.0	1711.0	0	0	1	-360	360;
	106	107	0.00686	0.05623	0.01162	1283.0	1283.0	1283.0	0	0	1	-360	360;
	108	107	0.00305	0.02502	0.00919	1711.0	1711.0	1711.0	0	0	1	-360	360;
	109	106	0.00364	0.02982	0.01096	1711.0	1711.0	1711.0	0	0	1	-360	360;
	110	111	0.02379	0.19505	0.07167	1711.0	1711.0	1711.0	0	0	1	-360	360;
	87	112	0.00736	0.06038	0.02219	1711.0	1711.0	1711.0	0	0	1	-360	360;
	113	87	0.00478	0.03918	0.01440	1711.0	1711.0	1711.0	0	0	1	-360	360;
	87	85	0.01326	0.10869	0.03994	1711.0	1711.0	1711.0	0	0	1	-360	360;
	110	114	0.01400	0.11479	0.04218	1711.0	1711.0	1711.0	0	0	1	-360	360;
	115	116	0.01322	0.06630	0.00811	991.0	991.0	991.0	0	0	1	-360	360;
	117	118	0.00719	0.05892	0.02165	1711.0	1711.0	1711.0	0	0	1	-360	360;
	117	119	0.00930	0.07624	0.02802	1711.0	1711.0	1711.0	0	0	1	-360	360;
	117	120	0.01413	0.11585	0.04257	1711.0	1711.0	1711.0	0	0	1	-360	360;
	121	122	0.00254	0.02083	0.00766	1711.0	1711.0	1711.0	0	0	1	-360	360;
	123	124	0.00221	0.01809	0.00665	1711.0	1711.0	1711.0	0	0	1	-360	360;
	125	126	0.00593	0.04862	0.01787	1711.0	1711.0	1711.0	0	0	1	-360	360;
	127	119	0.00348	0.02856	0.01050	1711.0	1711.0	1711.0	0	0	1	-360	360;
	118	128	0.00888	0.07279	0.02675	1711.0	1711.0	1711.0	0	0	1	-360	360;
	121	119	0.00306	0.02512	0.00923	1711.0	1711.0	1711.0	0	0	1	-360	360;
	530	527	0.04261	0.21377	0.00653	495.0	495.0	495.0	0	0	1	-360	360;
	125	130	0.00352	0.02885	0.01060	1711.0	1711.0	1711.0	0	0	1	-360	360;
	125	123	0.00458	0.03755	0.01380	1711.0	1711.0	1711.0	0	0	1	-360	360;
	131	132	0.00429	0.03517	0.01293	1711.0	1711.0	1711.0	0	0	1	-360	360;
	133	123	0.00464	0.03803	0.01397	1711.0	1711.0	1711.0	0	0	1	-360	360;
	117	120	0.01413	0.11585	0.04257	1711.0	1711.0	1711.0	0	0	1	-360	360;
	524	134	0.01517	0.07612	0.00931	991.0	991.0	991.0	0	0	1	-360	360;
	135	136	0.00629	0.05159	0.01896	1711.0	1711.0	1711.0	0	0	1	-360	360;
	125	123	0.00458	0.03755	0.01380	1711.0	1711.0	1711.0	0	0	1	-360	360;
	123	131	0.00377	0.03088	0.01135	1711.0	1711.0	1711.0	0	0	1	-360	360;
	117	119	0.00930	0.07624	0.02802	1711.0	1711.0	1711.0	0	0	1	-360	360;
	117	128	0.01296	0.10627	0.03905	1711.0	1711.0	1711.0	0	0	1	-360	360;
	137	521	0.05188	0.26024	0.00795	495.0	495.0	495.0	0	0	1	-360	360;
	531	514	0.01116	0.05597	0.00385	743.0	743.0	743.0	0	0	1	-360	360;
	139	521	0.03986	0.19995	0.00611	495.0	495.0	495.0	0	0	1	-360	360;
	140	514	0.03474	0.17428	0.00533	495.0	495.0	495.0	0	0	1	-360	360;
	522	141	0.02282	0.11446	0.00350	495.0	495.0	495.0	0	0	1	-360	360;
	142	523	0.02199	0.11030	0.00337	495.0	495.0	495.0	0	0	1	-360	360;
	530	526	0.03803	0.19077	0.00583	495.0	495.0	495.0	0	0	1	-360	360;
	140	532	0.00875	0.04392	0.00134	495.0	495.0	495.0	0	0	1	-360	360;
	142	144	0.01252	0.06282	0.00432	743.0	743.0	743.0	0	0	1	-360	360;
	140	522	0.03834	0.19236	0.00588	495.0	495.0	495.0	0	0	1	-360	360;
	145	146	0.05349	0.26834	0.00820	495.0	495.0	495.0	0	0	1	-360	360;
	147	523	0.09301	0.46661	0.00357	248.0	248.0	248.0	0	0	1	-360	360;
	144	523	0.01590	0.07976	0.00244	495.0	495.0	495.0	0	0	1	-360	360;
	139	523	0.05484	0.27509	0.00210	248.0	248.0	248.0	0	0	1	-360	360;
	140	141	0.01568	0.07866	0.00240	495.0	495.0	495.0	0	0	1	-360	360;
	142	523	0.02648	0.13282	0.00406	495.0	495.0	495.0	0	0	1	-360	360;
	147	523	0.09230	0.46303	0.00354	248.0	248.0	248.0	0	0	1	-360	360;
	528	526	0.02885	0.14475	0.00442	495.0	495.0	495.0	0	0	1	-360	360;
	528	148	0.02682	0.13457	0.00411	495.0	495.0	495.0	0	0	1	-360	360;
	149	150	0.02551	0.12797	0.00391	495.0	495.0	495.0	0	0	1	-360	360;
	145	528	0.00601	0.03016	0.00092	495.0	495.0	495.0	0	0	1	-360	360;
	530	151	0.02465	0.12364	0.00378	495.0	495.0	495.0	0	0	1	-360	360;
	524	152	0.02737	0.13732	0.00420	495.0	495.0	495.0	0	0	1	-360	360;
	149	525	0.06336	0.31788	0.00972	495.0	495.0	495.0	0	0	1	-360	360;
	139	514	0.01467	0.07360	0.00225	495.0	495.0	495.0	0	0	1	-360	360;
	126	120	0.01534	0.12576	0.04621	1711.0	1711.0	1711.0	0	0	1	-360	360;
	530	153	0.04227	0.21207	0.00648	495.0	495.0	495.0	0	0	1	-360	360;
	528	147	0.29600	1.48494	0.01135	248.0	248.0	248.0	0	0	1	-360	360;
	528	154	0.02448	0.12281	0.00094	248.0	248.0	248.0	0	0	1	-360	360;
	149	525	0.06336	0.31788	0.00972	495.0	495.0	495.0	0	0	1	-360	360;
	130	120	0.01741	0.14273	0.05245	1711.0	1711.0	1711.0	0	0	1	-360	360;
	528	155	0.30120	1.51103	0.01155	248.0	248.0	248.0	0	0	1	-360	360;
	528	154	0.02448	0.12281	0.00094	248.0	248.0	248.0	0	0	1	-360	360;
	524	533	0.00831	0.04170	0.00510	991.0	991.0	991.0	0	0	1	-360	360;
	524	149	0.02112	0.10593	0.00324	495.0	495.0	495.0	0	0	1	-360	360;
	154	150	0.02827	0.14183	0.00108	248.0	248.0	248.0	0	0	1	-360	360;
	154	150	0.02827	0.14183	0.00108	248.0	248.0	248.0	0	0	1	-360	360;
	524	149	0.02115	0.10613	0.00324	495.0	495.0	495.0	0	0	1	-360	360;
	157	110	0.01195	0.09803	0.03602	1711.0	1711.0	1711.0	0	0	1	-360	360;
	119	158	0.00090	0.00735	0.00270	1711.0	1711.0	1711.0	0	0	1	-360	360;
	159	60	0.01316	0.10792	0.00991	856.0	856.0	856.0	0	0	1	-360	360;
	536	161	0.03996	0.20049	0.00613	495.0	495.0	495.0	0	0	1	-360	360;
	115	151	0.00711	0.03569	0.00436	991.0	991.0	991.0	0	0	1	-360	360;
	162	134	0.00597	0.02993	0.00091	495.0	495.0	495.0	0	0	1	-360	360;
	115	526	0.00710	0.03563	0.00109	495.0	495.0	495.0	0	0	1	-360	360;
	138	87	0.00269	0.02206	0.00811	1711.0	1711.0	1711.0	0	0	1	-360	360;
	162	134	0.00597	0.02993	0.00091	495.0	495.0	495.0	0	0	1	-360	360;
	123	163	0.00273	0.02241	0.00824	1711.0	1711.0	1711.0	0	0	1	-360	360;
	112	164	0.00209	0.01711	0.00629	1711.0	1711.0	1711.0	0	0	1	-360	360;
	112	165	0.00719	0.05894	0.02166	1711.0	1711.0	1711.0	0	0	1	-360	360;
	166	165	0.00316	0.02591	0.00952	1711.0	1711.0	1711.0	0	0	1	-360	360;
	112	164	0.00208	0.01707	0.00627	1711.0	1711.0	1711.0	0	0	1	-360	360;
	167	537	0.03121	0.15656	0.00478	495.0	495.0	495.0	0	0	1	-360	360;
	168	104	0.00306	0.02512	0.00923	1711.0	1711.0	1711.0	0	0	1	-360	360;
	531	520	0.03029	0.15197	0.00464	495.0	495.0	495.0	0	0	1	-360	360;
	139	520	0.02003	0.10048	0.00307	495.0	495.0	495.0	0	0	1	-360	360;
	520	169	0.00426	0.02135	0.00065	495.0	495.0	495.0	0	0	1	-360	360;
	520	169	0.00425	0.02131	0.00065	495.0	495.0	495.0	0	0	1	-360	360;
	168	105	0.00881	0.07223	0.02654	1711.0	1711.0	1711.0	0	0	1	-360	360;
	520	170	0.01104	0.05541	0.00169	495.0	495.0	495.0	0	0	1	-360	360;
	520	170	0.02191	0.10991	0.00084	248.0	248.0	248.0	0	0	1	-360	360;
	138	87	0.00284	0.02330	0.00856	1711.0	1711.0	1711.0	0	0	1	-360	360;
...
];
%%-----  OPF Data  -----%%
%% generator cost data
%	1	startup	shutdown	n	x1	y1	...	xn	yn
%	2	startup	shutdown	n	c(n-1)	...	c0
mpc.gencost = [
	2	0.0	0.0	3	0.0	50.0	0;
	2	0.0	0.0	3	0.0	25.0	0;
	2	0.0	0.0	3	0.0	50.0	0;
	2	0.0	0.0	3	0.0	3.0	0;
	2	0.0	0.0	3	0.0	6.0	0;
	2	0.0	0.0	3	0.0	50.0	0;
	2	0.0	0.0	3	0.0	50.0	0;
	2	0.0	0.0	3	0.0	3.0	0;
	2	0.0	0.0	3	0.0	25.0	0;
	2	0.0	0.0	3	0.0	10.0	0;
	2	0.0	0.0	3	0.0	50.0	0;
	2	0.0	0.0	3	0.0	50.0	0;
	2	0.0	0.0	3	0.0	6.0	0;
	2	0.0	0.0	3	0.0	10.0	0;
	2	0.0	0.0	3	0.0	50.0	0;
	2	0.0	0.0	3	0.0	25.0	0;
	2	0.0	0.0	3	0.0	10.0	0;
	2	0.0	0.0	3	0.0	10.0	0;
	2	0.0	0.0	3	0.0	50.0	0;
	2	0.0	0.0	3	0.0	50.0	0;
	2	0.0	0.0	3	0.0	100.0	0;
	2	0.0	0.0	3	0.0	10.0	0;
	2	0.0	0.0	3	0.0	6.0	0;
	2	0.0	0.0	3	0.0	3.0	0;
	2	0.0	0.0	3	0.0	25.0	0;
	2	0.0	0.0	3	0.0	50.0	0;
	2	0.0	0.0	3	0.0	6.0	0;
	2	0.0	0.0	3	0.0	25.0	0;
	2	0.0	0.0	3	0.0	6.0	0;
	2	0.0	0.0	3	0.0	50.0	0;
	2	0.0	0.0	3	0.0	3.0	0;
	2	0.0	0.0	3	0.0	10.0	0;
	2	0.0	0.0	3	0.0	6.0	0;
	2	0.0	0.0	3	0.0	10.0	0;
	2	0.0	0.0	3	0.0	50.0	0;
	2	0.0	0.0	3	0.0	25.0	0;
	2	0.0	0.0	3	0.0	50.0	0;
	2	0.0	0.0	3	0.0	25.0	0;
	2	0.0	0.0	3	0.0	3.0	0;
	2	0.0	0.0	3	0.0	50.0	0;
	2	0.0	0.0	3	0.0	50.0	0;
	2	0.0	0.0	3	0.0	50.0	0;
	2	0.0	0.0	3	0.0	25.0	0;
	2	0.0	0.0	3	0.0	10.0	0;
	2	0.0	0.0	3	0.0	50.0	0;
	2	0.0	0.0	3	0.0	32.0	0;
	2	0.0	0.0	3	0.0	6.0	0;
	2	0.0	0.0	3	0.0	50.0	0;
	2	0.0	0.0	3	0.0	50.0	0;
	2	0.0	0.0	3	0.0	50.0	0;
	2	0.0	0.0	3	0.0	100.0	0;
	2	0.0	0.0	3	0.0	6.0	0;
	2	0.0	0.0	3	0.0	3.0	0;
	2	0.0	0.0	3	0.0	50.0	0;
	2	0.0	0.0	3	0.0	6.0	0;
	2	0.0	0.0	3	0.0	6.0	0;
	2	0.0	0.0	3	0.0	10.0	0;
	2	0.0	0.0	3	0.0	10.0	0;
	2	0.0	0.0	3	0.0	50.0	0;
	2	0.0	0.0	3	0.0	50.0	0;
	2	0.0	0.0	3	0.0	25.0	0;
	2	0.0	0.0	3	0.0	6.0	0;
	2	0.0	0.0	3	0.0	50.0	0;
	2	0.0	0.0	3	0.0	50.0	0;
	2	0.0	0.0	3	0.0	25.0	0;
	2	0.0	0.0	3	0.0	50.0	0;
	2	0.0	0.0	3	0.0	3.0	0;
	2	0.0	0.0	3	0.0	50.0	0;
	2	0.0	0.0	3	0.0	50.0	0;
	2	0.0	0.0	3	0.0	6.0	0;
	2	0.0	0.0	3	0.0	50.0	0;
	2	0.0	0.0	3	0.0	32.0	0;
	2	0.0	0.0	3	0.0	25.0	0;
	2	0.0	0.0	3	0.0	32.0	0;
	2	0.0	0.0	3	0.0	50.0	0;
	2	0.0	0.0	3	0.0	28.0	0;
	2	0.0	0.0	3	0.0	50.0	0;
	2	0.0	0.0	3	0.0	3.0	0;
	2	0.0	0.0	3	0.0	50.0	0;
	2	0.0	0.0	3	0.0	100.0	0;
	2	0.0	0.0	3	0.0	6.0	0;
	2	0.0	0.0	3	0.0	50.0	0;
	2	0.0	0.0	3	0.0	25.0	0;
	2	0.0	0.0	3	0.0	100.0	0;
	2	0.0	0.0	3	0.0	6.0	0;
	2	0.0	0.0	3	0.0	50.0	0;
	2	0.0	0.0	3	0.0	6.0	0;
	2	0.0	0.0	3	0.0	50.0	0;
	2	0.0	0.0	3	0.0	50.0	0;
	2	0.0	0.0	3	0.0	50.0	0;
	2	0.0	0.0	3	0.0	25.0	0;
	2	0.0	0.0	3	0.0	50.0	0;
	2	0.0	0.0	3	0.0	25.0	0;
	2	0.0	0.0	3	0.0	25.0	0;
	2	0.0	0.0	3	0.0	32.0	0;
	2	0.0	0.0	3	0.0	3.0	0;
	2	0.0	0.0	3	0.0	50.0	0;
	2	0.0	0.0	3	0.0	10.0	0;
	2	0.0	0.0	3	0.0	50.0	0;
	2	0.0	0.0	3	0.0	50.0	0;
	2	0.0	0.0	3	0.0	50.0	0;
	2	0.0	0.0	3	0.0	8.0	0;
	2	0.0	0.0	3	0.0	50.0	0;
	2	0.0	0.0	3	0.0	25.0	0;
	2	0.0	0.0	3	0.0	50.0	0;
	2	0.0	0.0	3	0.0	25.0	0;
	2	0.0	0.0	3	0.0	50.0	0;
	2	0.0	0.0	3	0.0	25.0	0;
	2	0.0	0.0	3	0.0	6.0	0;
	2	0.0	0.0	3	0.0	6.0	0;
	2	0.0	0.0	3	0.0	25.0	0;
	2	0.0	0.0	3	0.0	6.0	0;
	2	0.0	0.0	3	0.0	3.0	0;
	2	0.0	0.0	3	0.0	50.0	0;
	2	0.0	0.0	3	0.0	50.0	0;
	2	0.0	0.0	3	0.0	50.0	0;
	2	0.0	0.0	3	0.0	6.0	0;
	2	0.0	0.0	3	0.0	50.0	0;
	2	0.0	0.0	3	0.0	25.0	0;
	2	0.0	0.0	3	0.0	6.0	0;
	2	0.0	0.0	3	0.0	50.0	0;
	2	0.0	0.0	3	0.0	6.0	0;
	2	0.0	0.0	3	0.0	26.0	0;
	2	0.0	0.0	3	0.0	50.0	0;
	2	0.0	0.0	3	0.0	50.0	0;
	2	0.0	0.0	3	0.0	32.0	0;
	2	0.0	0.0	3	0.0	50.0	0;
	2	0.0	0.0	3	0.0	25.0	0;
	2	0.0	0.0	3	0.0	6.0	0;
	2	0.0	0.0	3	0.0	50.0	0;
	2	0.0	0.0	3	0.0	3.0	0;
	2	0.0	0.0	3	0.0	3.0	0;
	2	0.0	0.0	3	0.0	50.0	0;
	2	0.0	0.0	3	0.0	25.0	0;
	2	0.0	0.0	3	0.0	100.0	0;
	2	0.0	0.0	3	0.0	50.0	0;
	2	0.0	0.0	3	0.0	25.0	0;
	2	0.0	0.0	3	0.0	32.0	0;
	2	0.0	0.0	3	0.0	3.0	0;
	2	0.0	0.0	3	0.0	50.0	0;
	2	0.0	0.0	3	0.0	50.0	0;
	2	0.0	0.0	3	0.0	25.0	0;
	2	0.0	0.0	3	0.0	25.0	0;
	2	0.0	0.0	3	0.0	100.0	0;
	2	0.0	0.0	3	0.0	3.0	0;
	2	0.0	0.0	3	0.0	25.0	0;
	2	0.0	0.0	3	0.0	6.0	0;
	2	0.0	0.0	3	0.0	32.0	0;
	2	0.0	0.0	3	0.0	50.0	0;
	2	0.0	0.0	3	0.0	3.0	0;
	2	0.0	0.0	3	0.0	50.0	0;
	2	0.0	0.0	3	0.0	32.0	0;
	2	0.0	0.0	3	0.0	25.0	0;
	2	0.0	0.0	3	0.0	50.0	0;
	2	0.0	0.0	3	0.0	100.0	0;
	2	0.0	0.0	3	0.0	3.0	0;
	2	0.0	0.0	3	0.0	6.0	0;
	2	0.0	0.0	3	0.0	8.0	0;
	2	0.0	0.0	3	0.0	50.0	0;
	2	0.0	0.0	3	0.0	50.0	0;
	2	0.0	0.0	3	0.0	32.0	0;
	2	0.0	0.0	3	0.0	6.0	0;
	2	0.0	0.0	3	0.0	25.0	0;
	2	0.0	0.0	3	0.0	3.0	0;
	2	0.0	0.0	3	0.0	10.0	0;
	2	0.0	0.0	3	0.0	25.0	0;
	2	0.0	0.0	3	0.0	100.0	0;
	2	0.0	0.0	3	0.0	3.0	0;
	2	0.0	0.0	3	0.0	50.0	0;
	2	0.0	0.0	3	0.0	100.0	0;
	2	0.0	0.0	3	0.0	50.0	0;
	2	0.0	0.0	3	0.0	50.0	0;
	2	0.0	0.0	3	0.0	25.0	0;
	2	0.0	0.0	3	0.0	50.0	0;
	2	0.0	0.0	3	0.0	25.0	0;
	2	0.0	0.0	3	0.0	6.0	0;
	2	0.0	0.0	3	0.0	10.0	0;
	2	0.0	0.0	3	0.0	10.0	0;
	2	0.0	0.0	3	0.0	50.0	0;
	2	0.0	0.0	3	0.0	6.0	0;
	2	0.0	0.0	3	0.0	50.0	0;
	2	0.0	0.0	3	0.0	6.0	0;
	2	0.0	0.0	3	0.0	50.0	0;
	2	0.0	0.0	3	0.0	25.0	0;
	2	0.0	0.0	3	0.0	50.0	0;
	2	0.0	0.0	3	0.0	25.0	0;
	2	0.0	0.0	3	0.0	3.0	0;
	2	0.0	0.0	3	0.0	50.0	0;
	2	0.0	0.0	3	0.0	10.0	0;
	2	0.0	0.0	3	0.0	50.0	0;
	2	0.0	0.0	3	0.0	32.0	0;
	2	0.0	0.0	3	0.0	3.0	0;
	2	0.0	0.0	3	0.0	6.0	0;
	2	0.0	0.0	3	0.0	50.0	0;
	2	0.0	0.0	3	0.0	100.0	0;
	2	0.0	0.0	3	0.0	8.0	0;
	2	0.0	0.0	3	0.0	100.0	0;
	2	0.0	0.0	3	0.0	50.0	0;
	2	0.0	0.0	3	0.0	8.0	0;
	2	0.0	0.0	3	0.0	3.0	0;
...
];
